Version 4
SHEET 1 880 680
WIRE -336 -144 -448 -144
WIRE -240 -144 -336 -144
WIRE -448 -80 -448 -144
WIRE -240 -80 -240 -144
WIRE -576 0 -624 0
WIRE -496 0 -576 0
WIRE -624 48 -624 0
WIRE -624 176 -624 128
WIRE -448 176 -448 16
WIRE -240 176 -240 0
FLAG -576 0 VGS
FLAG -336 -144 VDS
FLAG -624 176 0
FLAG -448 176 0
FLAG -240 176 0
SYMBOL voltage -624 32 R0
SYMATTR InstName V1
SYMATTR Value 0
SYMBOL nmos -496 -80 R0
SYMATTR InstName M1
SYMATTR Value 2N7002K
SYMATTR Prefix X
SYMBOL voltage -240 -96 R0
WINDOW 123 0 0 Left 0
WINDOW 39 0 0 Left 0
SYMATTR InstName V2
SYMATTR Value 5
TEXT -792 -64 Left 2 !.include 2n7002k.txt
TEXT -784 -136 Left 2 !.dc V1 0 1 0.01
TEXT -736 -200 Left 2 ;Curva de transferencia VGS vs ID
