Version 4
SHEET 1 880 680
WIRE 624 128 368 128
WIRE 688 128 624 128
WIRE 368 176 368 128
WIRE 688 176 688 128
WIRE 128 192 112 192
WIRE 320 192 128 192
WIRE 112 256 112 192
WIRE 112 400 112 336
WIRE 368 400 368 272
WIRE 688 400 688 256
FLAG 368 400 0
FLAG 112 400 0
FLAG 688 400 0
FLAG 128 192 VGS
FLAG 624 128 VDS
SYMBOL voltage 112 240 R0
SYMATTR InstName V1
SYMATTR Value 0
SYMATTR Value2 AC 10
SYMBOL pmos 320 272 M180
SYMATTR InstName M1
SYMATTR Value TP0610K
SYMATTR Prefix X
SYMBOL voltage 688 160 R0
SYMATTR InstName V2
SYMATTR Value 5
TEXT 144 56 Left 2 !.dc V1 0 1 0.01
TEXT 144 88 Left 2 !.include tp0610k.txt
TEXT 272 -16 Left 2 ;Curva de salida VGS vs ID
