Version 4
SHEET 1 880 680
WIRE -336 -144 -448 -144
WIRE -240 -144 -336 -144
WIRE -240 -80 -240 -144
WIRE -448 -16 -448 -144
WIRE -576 0 -704 0
WIRE -496 0 -576 0
WIRE -704 32 -704 0
WIRE -704 176 -704 112
WIRE -448 176 -448 80
WIRE -240 176 -240 0
FLAG -576 0 VGS
FLAG -336 -144 VDS
FLAG -704 176 0
FLAG -448 176 0
FLAG -240 176 0
SYMBOL voltage -704 16 R0
WINDOW 123 0 0 Left 0
WINDOW 39 0 0 Left 0
SYMATTR InstName V1
SYMATTR Value {VVAR}
SYMBOL voltage -240 -96 R0
WINDOW 123 0 0 Left 0
WINDOW 39 0 0 Left 0
SYMATTR InstName V2
SYMATTR Value 0
SYMBOL pmos -496 80 M180
SYMATTR InstName M1
SYMATTR Value TP0610K
SYMATTR Prefix X
TEXT -1000 -128 Left 2 !.include tp0610k.txt
TEXT -1000 -104 Left 2 !.dc V2 0 5 0.01
TEXT -784 -232 Left 2 ;Curva de salida ID vs VDS
TEXT -1000 -80 Left 2 !.step param VVAR list 1.1 1.3 1.5 1.7 1.9
