Version 4
SHEET 1 880 680
WIRE 176 64 96 64
WIRE 368 64 176 64
WIRE 624 64 368 64
WIRE 688 64 624 64
WIRE 96 96 96 64
WIRE 688 176 688 64
WIRE 368 224 368 64
WIRE 96 240 96 176
WIRE 320 240 96 240
WIRE 368 400 368 320
WIRE 688 400 688 256
FLAG 368 400 0
FLAG 688 400 0
FLAG 176 64 VGS
FLAG 624 64 VDS
SYMBOL voltage 96 80 R0
SYMATTR InstName V1
SYMATTR Value 0
SYMATTR Value2 AC 10
SYMBOL pmos 320 320 M180
SYMATTR InstName M1
SYMATTR Value TP0610K
SYMATTR Prefix X
SYMBOL voltage 688 160 R0
SYMATTR InstName V2
SYMATTR Value 5
TEXT -112 344 Left 2 !.dc V1 0 1 0.01
TEXT -120 376 Left 2 !.include tp0610k.txt
TEXT 272 -16 Left 2 ;Curva de transferencia ID vs VGS
