Version 4
SHEET 1 880 680
WIRE 112 -64 16 -64
WIRE 16 32 16 -64
WIRE 112 64 112 16
WIRE 112 112 112 64
WIRE 48 160 -144 160
WIRE 112 240 112 208
WIRE 224 240 112 240
WIRE 256 240 224 240
WIRE -144 288 -144 160
WIRE 336 288 336 240
FLAG -144 288 0
FLAG 336 288 0
FLAG 16 32 0
FLAG 224 240 VEB
FLAG 112 64 VEC
SYMBOL pnp 48 208 M180
SYMATTR InstName Q1
SYMATTR Value 2N3906
SYMBOL voltage 240 240 R270
WINDOW 0 32 56 VTop 2
WINDOW 3 -32 56 VBottom 2
SYMATTR InstName V1
SYMATTR Value 0
SYMBOL voltage 112 -80 R0
SYMATTR InstName V2
SYMATTR Value 5
TEXT -96 352 Left 2 !.include 2N3906.SP3
TEXT -96 376 Left 2 !.dc V1 0 1 0.01
TEXT -376 72 Left 2 ;pnp
