Version 4
SHEET 1 880 680
WIRE 336 -48 256 -48
WIRE 432 -48 336 -48
WIRE 256 0 256 -48
WIRE 192 48 32 48
WIRE 32 96 32 48
WIRE 432 96 432 -48
WIRE 32 256 32 176
WIRE 256 256 256 96
WIRE 432 256 432 176
FLAG 32 256 0
FLAG 432 256 0
FLAG 256 256 0
FLAG 32 48 VBE
FLAG 336 -48 VCE
SYMBOL voltage 32 80 R0
SYMATTR InstName V1
SYMATTR Value {VVAR}
SYMBOL npn 192 0 R0
SYMATTR InstName Q1
SYMATTR Value 2N3904
SYMBOL voltage 432 80 R0
SYMATTR InstName V2
SYMATTR Value 0
TEXT 72 -112 Left 2 ;Curva de salida IC vs VCE
TEXT 24 328 Left 2 !.include 2N3904.SP3
TEXT 24 352 Left 2 !.dc V2 0 5 0.01
TEXT 24 376 Left 2 !.step param VVAR list 0.3 0.5 0.7 0.9 1.1 1.3
